@<TRIPOS>MOLECULE
LIG
   67    71     1     0     0
SMALL
bcc


@<TRIPOS>ATOM
      1 C1         48.8660   37.8810   28.9940 c3        1 LIG     -0.102100
      2 H1         49.2700   38.6110   29.6790 hc        1 LIG      0.046700
      3 H2         49.6730   37.4190   28.4440 hc        1 LIG      0.056700
      4 H3         48.1930   38.3690   28.3040 hc        1 LIG      0.056700
      5 C2         48.2050   36.9510   29.6760 c3        1 LIG      0.263800
      6 H4         47.8030   36.2560   28.9540 h1        1 LIG      0.081700
      7 N1         47.0720   37.5940   30.4500 nh        1 LIG     -0.826900
      8 H5         47.0170   38.6090   30.3620 hn        1 LIG      0.440800
      9 C3         46.0840   37.0210   31.2700 ca        1 LIG      0.884900
     10 N2         45.3000   37.7980   32.0790 nb        1 LIG     -0.731000
     11 C4         44.3600   37.1260   32.8390 ca        1 LIG      0.472200
     12 H6         43.7420   37.6960   33.4670 h4        1 LIG      0.040100
     13 C5         44.1730   35.7180   32.8290 ca        1 LIG     -0.396600
     14 H7         43.4470   35.2500   33.4270 ha        1 LIG      0.167000
     15 C6         45.0270   34.9760   31.9610 ca        1 LIG      0.526800
     16 N3         45.9620   35.6630   31.2030 nb        1 LIG     -0.758000
     17 C7         44.9460   33.4660   31.8690 cc        1 LIG     -0.224100
     18 C8         43.7640   32.6320   31.6230 cd        1 LIG      0.383800
     19 N4         44.1470   31.3300   31.6380 nd        1 LIG     -0.658000
     20 C9         45.4830   31.3670   31.8750 cc        1 LIG      0.349800
     21 C10        46.3470   30.0170   31.9900 c3        1 LIG     -0.074000
     22 H8         47.2690   30.2890   31.4970 hc        1 LIG      0.067700
     23 C11        46.7950   29.5360   33.4310 c3        1 LIG     -0.111400
     24 H9         47.4170   30.3030   33.8690 hc        1 LIG      0.103700
     25 H10        45.9100   29.4000   34.0360 hc        1 LIG      0.096700
     26 C12        47.5950   28.1990   33.4220 c3        1 LIG      0.107800
     27 H11        48.5500   28.3670   32.9470 hx        1 LIG      0.101700
     28 H12        47.7510   27.8790   34.4420 hx        1 LIG      0.107700
     29 N5         46.8650   27.1120   32.6760 n4        1 LIG     -0.764000
     30 H13        45.9870   26.8940   33.2290 hn        1 LIG      0.455800
     31 H14        47.4980   26.2910   32.5920 hn        1 LIG      0.453800
     32 C13        46.4210   27.5160   31.2870 c3        1 LIG      0.106800
     33 H15        47.2960   27.6640   30.6720 hx        1 LIG      0.101700
     34 H16        45.8180   26.7230   30.8710 hx        1 LIG      0.108700
     35 C14        45.5850   28.8310   31.2940 c3        1 LIG     -0.106400
     36 H17        44.6610   28.6530   31.8240 hc        1 LIG      0.102700
     37 H18        45.3670   29.1090   30.2740 hc        1 LIG      0.110700
     38 N6         46.0340   32.6160   32.0190 na        1 LIG     -0.148900
     39 C15        47.4420   33.0020   32.2860 c3        1 LIG      0.014600
     40 H19        47.4970   33.5440   33.2180 h1        1 LIG      0.084700
     41 H20        48.0530   32.1140   32.3500 h1        1 LIG      0.038700
     42 H21        47.8020   33.6290   31.4840 h1        1 LIG      0.082700
     43 C16        42.3560   33.0670   31.3880 ca        1 LIG     -0.129500
     44 C17        41.3310   32.6070   32.2540 ca        1 LIG     -0.060000
     45 H22        41.5740   31.9640   33.0480 ha        1 LIG      0.154000
     46 C18        39.9600   33.0110   32.0590 ca        1 LIG     -0.172300
     47 C19        39.6450   33.9100   30.9370 ca        1 LIG     -0.068000
     48 H23        38.6520   34.2140   30.7790 ha        1 LIG      0.161000
     49 C20        40.6700   34.3740   30.0620 ca        1 LIG     -0.132000
     50 H24        40.4390   35.0150   29.2630 ha        1 LIG      0.152000
     51 C21        42.0040   33.9570   30.2870 ca        1 LIG     -0.083000
     52 H25        42.7610   34.2980   29.6440 ha        1 LIG      0.149000
     53 C22        38.8660   32.5000   33.0080 c3        1 LIG      0.688200
     54 F1         38.5890   31.2760   32.6640 f         1 LIG     -0.235300
     55 F2         37.8140   33.2570   32.8650 f         1 LIG     -0.229300
     56 F3         39.2280   32.5310   34.2780 f         1 LIG     -0.239300
     57 C23        49.1270   36.0780   30.6230 ca        1 LIG     -0.109300
     58 C24        49.3520   36.4390   32.0270 ca        1 LIG     -0.119000
     59 H26        48.8890   37.2980   32.4140 ha        1 LIG      0.136000
     60 C25        50.1880   35.6490   32.8850 ca        1 LIG     -0.121000
     61 H27        50.3280   35.9280   33.8880 ha        1 LIG      0.142000
     62 C26        50.8300   34.4780   32.3660 ca        1 LIG     -0.126000
     63 H28        51.4450   33.8990   32.9900 ha        1 LIG      0.137000
     64 C27        50.6370   34.0920   30.9960 ca        1 LIG     -0.141000
     65 H29        51.1100   33.2330   30.6220 ha        1 LIG      0.126000
     66 C28        49.7940   34.8830   30.1340 ca        1 LIG     -0.127000
     67 H30        49.6600   34.5900   29.1350 ha        1 LIG      0.129000
@<TRIPOS>BOND
     1    1    5 1   
     2    1    2 1   
     3    1    3 1   
     4    1    4 1   
     5    5    7 1   
     6    5   57 1   
     7    5    6 1   
     8    7    9 1   
     9    7    8 1   
    10    9   10 ar  
    11    9   16 ar  
    12   10   11 ar  
    13   11   13 ar  
    14   11   12 1   
    15   13   15 ar  
    16   13   14 1   
    17   15   16 ar  
    18   15   17 1   
    19   17   18 ar  
    20   17   38 ar  
    21   18   19 ar  
    22   18   43 1   
    23   19   20 ar  
    24   20   21 1   
    25   20   38 ar  
    26   21   23 1   
    27   21   35 1   
    28   21   22 1   
    29   23   26 1   
    30   23   24 1   
    31   23   25 1   
    32   26   29 1   
    33   26   27 1   
    34   26   28 1   
    35   29   32 1   
    36   29   31 1   
    37   29   30 1   
    38   32   35 1   
    39   32   33 1   
    40   32   34 1   
    41   35   36 1   
    42   35   37 1   
    43   38   39 1   
    44   39   40 1   
    45   39   41 1   
    46   39   42 1   
    47   43   44 ar  
    48   43   51 ar  
    49   44   46 ar  
    50   44   45 1   
    51   46   47 ar  
    52   46   53 1   
    53   47   49 ar  
    54   47   48 1   
    55   49   51 ar  
    56   49   50 1   
    57   51   52 1   
    58   53   54 1   
    59   53   55 1   
    60   53   56 1   
    61   57   58 ar  
    62   57   66 ar  
    63   58   60 ar  
    64   58   59 1   
    65   60   62 ar  
    66   60   61 1   
    67   62   64 ar  
    68   62   63 1   
    69   64   66 ar  
    70   64   65 1   
    71   66   67 1   
@<TRIPOS>SUBSTRUCTURE
     1 LIG         1 TEMP              0 ****  ****    0 ROOT
